*MATERIAL,NAME=aluminum
*ELASTIC
6.8900E+10,0.33
*DENSITY
2.7000E+03

*SOLID SECTION,MATERIAL=aluminum,ELSET=BOX_LOWER

*MATERIAL,NAME=aluminum
*ELASTIC
6.8900E+10,0.33
*DENSITY
2.7000E+03

*SOLID SECTION,MATERIAL=aluminum,ELSET=BOX_UPPER

*MATERIAL,NAME=Rubber
*ELASTIC
5.0000E+05,0.49
*DENSITY
1.1000E+03

*SOLID SECTION,MATERIAL=Rubber,ELSET=ORING

