SUMMARY OF JOB INFORMATION
  STEP      INC     ATT  ITRS     TOT TIME     STEP TIME      INC TIME
     1          1     1     4  0.100000E+00  0.100000E+00  0.100000E+00
     1          2     1     5  0.200000E+00  0.200000E+00  0.100000E+00
     1          3     1     5  0.350000E+00  0.350000E+00  0.150000E+00
     1          4     1     5  0.575000E+00  0.575000E+00  0.225000E+00
     1          5     1     5  0.912500E+00  0.912500E+00  0.337500E+00
     1          6     1     6  0.141875E+01  0.141875E+01  0.506250E+00
     1          7     1     5  0.217813E+01  0.217813E+01  0.759375E+00
     1          8     1     5  0.300000E+01  0.300000E+01  0.821875E+00
