*MATERIAL,NAME=concrete20
*ELASTIC
3.0000E+10,0.2
*DENSITY
2.4000E+03

*SOLID SECTION,MATERIAL=concrete20,ELSET=BASE

*MATERIAL,NAME=absplastic
*ELASTIC
2.0000E+09,0.39
*DENSITY
1.0500E+03

*SOLID SECTION,MATERIAL=absplastic,ELSET=WHEEL

