
*MATERIAL,NAME=steel
*ELASTIC
2.0000E+11,0.28


*DENSITY
7.8500E+03
*EXPANSION
1.3000E-05

*SOLID SECTION,MATERIAL=steel,ELSET=Group_1

