# ------------------------------------------------------------------------------------------
# Impression du contenu du fichier de commandes à exécuter :
# ------------------------------------------------------------------------------------------
DEBUT();

MA=DEFI_MATERIAU(ELAS=_F(E=2.1e+11,
                         NU=0.3,),);

MAIL=LIRE_MAILLAGE(FORMAT='MED',);

MAIL=MODI_MAILLAGE(reuse=MAIL,
                   MAILLAGE=MAIL,
                   ORIE_PEAU_3D=_F(GROUP_MA=('Group_3',),),
                   );

MODE=AFFE_MODELE(MAILLAGE=MAIL,
                 AFFE=_F(TOUT='OUI',
                         PHENOMENE='MECANIQUE',
                         MODELISATION='3D',),);

MATE=AFFE_MATERIAU(MAILLAGE=MAIL,
                   AFFE=_F(TOUT='OUI',
                           MATER=MA,),);

CHAR=AFFE_CHAR_MECA(MODELE=MODE,
                    DDL_IMPO=(
                        _F(GROUP_MA='Group_2',
                           DX=0.0,
                           DY=0.0,
                           DZ=0.0,),
                        ),
                    PRES_REP=(
                        _F(GROUP_MA='Group_3',
                           PRES=100.0,),
                        ),
                    );

RESU=MECA_STATIQUE(MODELE=MODE,
                   CHAM_MATER=MATE,
                   EXCIT=_F(CHARGE=CHAR,),);

RESU=CALC_CHAMP(reuse=RESU,
               RESULTAT=RESU,
               CONTRAINTE=('SIGM_ELNO','SIGM_NOEU'),
               CRITERES=('SIEQ_ELNO','SIEQ_NOEU',),);

IMPR_RESU(FORMAT='MED',
          UNITE=80,
          RESU=_F(RESULTAT=RESU,
                  NOM_CHAM=('SIGM_NOEU','SIEQ_NOEU','DEPL',),),);

FIN();

# ------------------------------------------------------------------------------------------

  Ouverture en écriture du fichier ./vola.1
                                                                                
                                                                                
              -- CODE_ASTER -- VERSION : EXPLOITATION (stable) --               
                                                                                
                     Version 12.6.0 modifiée le 16/06/2016                      
                     révision 77d3379d51e8 - branche 'v12'                      
                         Copyright EDF R&D 1991 - 2016                          
                                                                                
                    Exécution du : Thu Oct 13 00:11:13 2016                     
                           Nom de la machine : UBUNTU                           
                              Architecture : 64bit                              
                          Type de processeur : x86_64                           
      Système d'exploitation : Linux debian stretch/sid  4.4.0-42-generic       
                        Langue des messages : ko (UTF-8)                        
                                                                                
                           Version de Python : 2.7.10                           
                            Version de NumPy : 1.9.2                            
                           Parallélisme MPI : inactif                           
                          Parallélisme OpenMP : actif                           
                        Nombre de processus utilisés : 1                        
                     Version de la librairie HDF5 : 1.8.14                      
                      Version de la librairie MED : 3.2.0                       
                     Version de la librairie MFront : 2.0.2                     
                     Version de la librairie MUMPS : 4.10.0                     
                        Librairie PETSc : non disponible                        
                    Version de la librairie SCOTCH : 5.1.10                     

                  Mémoire limite pour l'exécution : 862.00 Mo                   
                   consommée par l'initialisation : 377.39 Mo                   
                  par les objets du jeu de commandes : 3.39 Mo                  
                 reste pour l'allocation dynamique : 481.21 Mo                  
                Taille limite des fichiers d'échange : 12.00 Go                 
                                                                                

  # ------------------------------------------------------------------------------------------
  # Commande No :  0001            Concept de type : -
  # ------------------------------------------------------------------------------------------
  DEBUT(INFO=1,
        PAR_LOT='OUI',
        IMPR_MACRO='NON',
        MEMOIRE=_F(TAILLE_BLOC=800.0,
                   TAILLE_GROUP_ELEM=1000,),
        RESERVE_CPU=_F(BORNE=900,),
        MESURE_TEMPS=_F(MOYENNE='NON',
                        NIVE_DETAIL=1,),
        )



  Valeur initiale du temps CPU maximum =   600 secondes
  Valeur du temps CPU maximum passé aux commandes =   540 secondes
  Réserve CPU prévue = 60 secondes

  Ouverture en écriture du fichier ./glob.1

  Ouverture en écriture du fichier ./vola.1

  Ouverture en lecture du fichier /home/dong/salome_meca/V2016/tools/Code_aster_stable-1260/lib/aster/elem.1

     Nom de la base                          :  ELEMBASE
     Créée avec la version                   :  12.06.00
     Nombre d'enregistrements utilisés       :  30
     Nombre d'enregistrements maximum        :  512
     Longueur d'enregistrement (octets)      :  819200
     Nombre d'identificateurs utilisés       :  123
     Taille maximum du répertoire            :  300
     Pourcentage d'utilisation du répertoire :  41 %

  Ouverture en lecture du fichier /home/dong/salome_meca/V2016/tools/Code_aster_stable-1260/lib/aster/elem.1


     Nom de la base                          :  ELEMBASE
     Nombre d'enregistrements utilisés       :  30
     Nombre d'enregistrements maximum        :  512
     Longueur d'enregistrement (octets)      :  819200
     Nombre total d'accès en lecture         :  52
     Volume des accès en lecture             :         40.62 Mo.
     Nombre total d'accès en écriture        :  0
     Volume des accès en écriture            :          0.00 Mo.
     Nombre d'identificateurs utilisés       :  123
     Taille maximum du répertoire            :  300
     Pourcentage d'utilisation du répertoire :  41 %

  Relecture des catalogues des éléments faite.

  Fin de lecture (durée  0.020000  s.) 
  # Mémoire (Mo) :   416.77 /   411.29 /    35.93 /    19.37 (VmPeak / VmSize / Optimum / Minimum)
  # Fin commande No : 0001   user+syst:        0.05s (syst:        0.02s, elaps:        0.47s)
  # ------------------------------------------------------------------------------------------

  # ------------------------------------------------------------------------------------------
  # Commande No :  0002            Concept de type : mater_sdaster
  # ------------------------------------------------------------------------------------------
  MA = DEFI_MATERIAU(ELAS=_F(E=2.10000000000E11,
                             NU=0.3,),
                     INFO=1,)


 MATERIAU : MA      
 RELATION DE COMPORTEMENT: ELAS                            


  # Mémoire (Mo) :   416.77 /   411.98 /    35.93 /    19.37 (VmPeak / VmSize / Optimum / Minimum)
  # Fin commande No : 0002   user+syst:        0.01s (syst:        0.00s, elaps:        0.08s)
  # ------------------------------------------------------------------------------------------

  # ------------------------------------------------------------------------------------------
  # Commande No :  0003            Concept de type : maillage_sdaster
  # ------------------------------------------------------------------------------------------
  MAIL = LIRE_MAILLAGE(FORMAT='MED',
                       INFO_MED=1,
                       INFO=1,
                       UNITE=20,
                       VERI_MAIL=_F(APLAT=1.E-3,
                                    VERIF='OUI',),
                       )

  ====== VERIFICATION DU MAILLAGE ======
 

------------ MAILLAGE MAIL     - IMPRESSIONS NIVEAU  1 ------------

JE-13-OCTO-2016 00:11:13                                                        

NOMBRE DE NOEUDS                        2553

NOMBRE DE MAILLES                       2165
                              SEG3                  112
                              TRIA6                 738
                              TETRA10              1315

NOMBRE DE GROUPES DE NOEUDS                2
                              Group_2                             85
                              Group_3                            393

NOMBRE DE GROUPES DE MAILLES               3
                              Group_1                           1315
                              Group_2                             34
                              Group_3                            172

--------------------------------------------------------------------------------

  # Mémoire (Mo) :   416.77 /   412.77 /    35.93 /    19.37 (VmPeak / VmSize / Optimum / Minimum)
  # Fin commande No : 0003   user+syst:        0.05s (syst:        0.00s, elaps:        0.17s)
  # ------------------------------------------------------------------------------------------

  # ------------------------------------------------------------------------------------------
  # Commande No :  0004            Concept de type : maillage_sdaster
  # ------------------------------------------------------------------------------------------
  MAIL = MODI_MAILLAGE(reuse=MAIL,
                       MAILLAGE=MAIL,
                       ORIE_PEAU_3D=_F(GROUP_MA=('Group_3', ),),
                       INFO=1,)

TRAITEMENT DU GROUP_MA: Group_3                  DE     172 MAILLES
                              0 MAILLE(S) ONT ETE ORIENTEE(S)
  # Mémoire (Mo) :   416.77 /   412.77 /    35.93 /    19.37 (VmPeak / VmSize / Optimum / Minimum)
  # Fin commande No : 0004   user+syst:        0.03s (syst:        0.01s, elaps:        0.11s)
  # ------------------------------------------------------------------------------------------

  # ------------------------------------------------------------------------------------------
  # Commande No :  0005            Concept de type : modele_sdaster
  # ------------------------------------------------------------------------------------------
  MODE = AFFE_MODELE(MAILLAGE=MAIL,
                     AFFE=_F(PHENOMENE='MECANIQUE',
                             TOUT='OUI',
                             MODELISATION=('3D', ),),
                     INFO=1,
                     VERI_JACOBIEN='OUI',
                     PARTITION=_F(PARALLELISME='GROUP_ELEM',),
                     )


Sur les 2165 mailles du maillage MAIL, on a demandé l'affectation de 2165, on a pu en affecter 2165
 Modélisation     Type maille  Élément fini     Nombre
                  SEG3         MECA_ARETE3      112
                  TRIA6        MECA_FACE6       738
 3D               TETRA10      MECA_TETRA10     1315
#2      Calculs elementaires et assemblages               CPU (USER+SYST/SYST/ELAPS):      0.01      0.01      0.05
  # Mémoire (Mo) :   419.93 /   419.86 /    35.93 /    28.97 (VmPeak / VmSize / Optimum / Minimum)
  # Fin commande No : 0005   user+syst:        0.04s (syst:        0.01s, elaps:        0.31s)
  # ------------------------------------------------------------------------------------------

  # ------------------------------------------------------------------------------------------
  # Commande No :  0006            Concept de type : cham_mater
  # ------------------------------------------------------------------------------------------
  MATE = AFFE_MATERIAU(MAILLAGE=MAIL,
                       AFFE=_F(MATER=(MA, ),
                               TOUT='OUI',),
                       INFO=1,
                       )

  # Mémoire (Mo) :   419.93 /   419.86 /    35.93 /    28.97 (VmPeak / VmSize / Optimum / Minimum)
  # Fin commande No : 0006   user+syst:        0.01s (syst:        0.00s, elaps:        0.02s)
  # ------------------------------------------------------------------------------------------

  # ------------------------------------------------------------------------------------------
  # Commande No :  0007            Concept de type : char_meca
  # ------------------------------------------------------------------------------------------
  CHAR = AFFE_CHAR_MECA(MODELE=MODE,
                        DDL_IMPO=_F(GROUP_MA=('Group_2', ),
                                    DZ=0.0,
                                    DX=0.0,
                                    DY=0.0,),
                        PRES_REP=_F(GROUP_MA=('Group_3', ),
                                    PRES=100.0,),
                        INFO=1,
                        VERI_NORM='OUI',)

  # Mémoire (Mo) :   420.11 /   419.93 /    35.93 /    28.97 (VmPeak / VmSize / Optimum / Minimum)
  # Fin commande No : 0007   user+syst:        0.02s (syst:        0.00s, elaps:        0.06s)
  # ------------------------------------------------------------------------------------------

  # ------------------------------------------------------------------------------------------
  # Commande No :  0008            Concept de type : evol_elas
  # ------------------------------------------------------------------------------------------
  RESU = MECA_STATIQUE(MODELE=MODE,
                       CHAM_MATER=MATE,
                       EXCIT=_F(CHARGE=CHAR,
                                TYPE_CHARGE='FIXE',),
                       INFO=1,
                       INST=0.0,
                       OPTION='SIEF_ELGA',
                       SOLVEUR=_F(RENUM='METIS',
                                  STOP_SINGULIER='OUI',
                                  ELIM_LAGR='NON',
                                  NPREC=8,
                                  METHODE='MULT_FRONT',),
                       )


Le système linéaire à résoudre a 8169 degrés de liberté:
   - 7659 sont des degrés de liberté physiques
     (ils sont portés par 2553 noeuds du maillage)
   - 510 sont les couples de paramètres de Lagrange associés
     aux 255 relations linéaires dualisées.

La matrice est de taille 8169 équations.
Elle contient 272250 termes non nuls si elle est symétrique et 536331 termes non nuls si elle n'est pas symétrique (le nombre de
termes non nuls est susceptible de varier si l'on utilise le contact en formulation continue ou la méthode XFEM avec contact).
Soit un taux de remplissage de   0.804 %.
   CHAMP STOCKE :             DEPL INSTANT :  0.00000E+00  NUMERO D'ORDRE :     1
#1      Resolution des systemes lineaires                 CPU (USER+SYST/SYST/ELAPS):      0.23      0.01      0.37
#2      Calculs elementaires et assemblages               CPU (USER+SYST/SYST/ELAPS):      0.12      0.02      0.19
  # Mémoire (Mo) :   447.69 /   421.76 /    58.58 /    33.47 (VmPeak / VmSize / Optimum / Minimum)
  # Fin commande No : 0008   user+syst:        0.37s (syst:        0.03s, elaps:        0.81s)
  # ------------------------------------------------------------------------------------------

  # ------------------------------------------------------------------------------------------
  # Commande No :  0009            Concept de type : evol_elas
  # ------------------------------------------------------------------------------------------
  RESU = CALC_CHAMP(reuse=RESU,
                    RESULTAT=RESU,
                    PRECISION=1.E-06,
                    CRITERES=('SIEQ_ELNO', 'SIEQ_NOEU'),
                    CONTRAINTE=('SIGM_ELNO', 'SIGM_NOEU'),
                    INFO=1,
                    CRITERE='RELATIF',)

#2      Calculs elementaires et assemblages               CPU (USER+SYST/SYST/ELAPS):      0.03      0.01      0.03
  # Mémoire (Mo) :   447.69 /   426.30 /    58.58 /    33.47 (VmPeak / VmSize / Optimum / Minimum)
  # Fin commande No : 0009   user+syst:        0.07s (syst:        0.01s, elaps:        0.07s)
  # ------------------------------------------------------------------------------------------

  # ------------------------------------------------------------------------------------------
  # Commande No :  0010            Concept de type : -
  # ------------------------------------------------------------------------------------------
  IMPR_RESU(FORMAT='MED',
            RESU=_F(RESULTAT=RESU,
                    INFO_MAILLAGE='NON',
                    IMPR_NOM_VARI='NON',
                    NOM_CHAM=('SIGM_NOEU', 'SIEQ_NOEU', 'DEPL'),
                    ),
            UNITE=80,
            INFO=1,)

  # Mémoire (Mo) :   447.69 /   426.30 /    58.58 /    33.47 (VmPeak / VmSize / Optimum / Minimum)
  # Fin commande No : 0010   user+syst:        0.02s (syst:        0.00s, elaps:        0.06s)
  # ------------------------------------------------------------------------------------------

  # ------------------------------------------------------------------------------------------
  # Commande No :  0011            Concept de type : -
  # ------------------------------------------------------------------------------------------
  FIN(RETASSAGE='NON',
      INFO_RESU='OUI',
      FORMAT_HDF='NON',
      UNITE=6,
      )

   
   !-------------------------------------------------------------------------!
   ! <I> <CATAMESS_89>                                                       !
   !                                                                         !
   !     Liste des alarmes émises lors de l'exécution du calcul.             !
   !                                                                         !
   !     Les alarmes que vous avez choisies d'ignorer sont précédées de (*). !
   !     Nombre d'occurrences pour chacune des alarmes :                     !
   !            aucune alarme                                                !
   !-------------------------------------------------------------------------!
   

 ======>

 STRUCTURE DU CONCEPT RESU     CALCULE POUR 1 NUMERO D'ORDRE

 LISTE DES NOMS SYMBOLIQUES:
 ! ---------- !----------------!----------------!----------------!----------------!----------------!----------------!
 ! NUME_ORDRE !      DEPL      !   SIEF_ELGA    !   SIGM_ELNO    !   SIGM_NOEU    !   SIEQ_ELNO    !   SIEQ_NOEU    !
 ! ---------- !----------------!----------------!----------------!----------------!----------------!----------------!
 !          1 !     DEPL_R     !     SIEF_R     !     SIEF_R     !     SIEF_R     !     SIEF_R     !     SIEF_R     !
 ! ---------- !----------------!----------------!----------------!----------------!----------------!----------------!

 LISTE DES NOMS DE VARIABLES D'ACCES:
                                      INST             DE TYPE  R

 LISTE DES NOMS DE PARAMETRES:
 ! ---------- !----------------!----------------!----------------!----------------!----------------!----------------!----------------!----------------!
 ! NUME_ORDRE !    CARAELEM    !    CHAMPMAT    !     EXCIT      !   ITER_GCPC    !    METHODE     !     MODELE     !     RENUM      !    STOCKAGE    !
 ! ---------- !----------------!----------------!----------------!----------------!----------------!----------------!----------------!----------------!
 !          1 !       K8       !       K8       !      K24       !       I        !      K16       !       K8       !      K16       !      K16       !
 ! ---------- !----------------!----------------!----------------!----------------!----------------!----------------!----------------!----------------!
 ---------------------------------------------------------------------------
 Concepts de la base: G
    Nom       Type                 Taille (Mo)         Nombre      Nombre de
                                                     d'objets       segments
    TOTAL                                27.26            165            300
  
    MA         MATER_SDASTER              0.00              4              4
    MAIL       MAILLAGE_SDASTER           0.37             35             61
    MODE       MODELE_SDASTER             0.18              8             13
    MATE       CHAM_MATER                 0.00              5             10
    CHAR       CHAR_MECA                  0.19             24             49
    RESU       EVOL_ELAS                  5.37             44             57
    &FOZERO                               0.00              2              2
    &&_NUM_C                              0.00              1              1
    &CATA.AC                              0.00              2              4
    &CATA.CL                              0.28              1              3
    &CATA.GD                              0.07              4             11
    &CATA.ME                              0.15              2              4
    &CATA.OP                              0.31              4             19
    &CATA.PH                              0.00              1              1
    &CATA.PR                              0.00              2              4
    &CATA.TE                             20.29             17             42
    &CATA.TH                              0.01              2              4
    &CATA.TM                              0.02              7             11
 ---------------------------------------------------------------------------


     Nom de la base                          :  GLOBALE
     Nombre d'enregistrements utilisés       :  42
     Nombre d'enregistrements maximum        :  62914
     Longueur d'enregistrement (octets)      :  819200
     Nombre total d'accès en lecture         :  7
     Volume des accès en lecture             :          5.47 Mo.
     Nombre total d'accès en écriture        :  56
     Volume des accès en écriture            :         43.75 Mo.
     Nombre d'identificateurs utilisés       :  313
     Taille maximum du répertoire            :  2000
     Pourcentage d'utilisation du répertoire :  15 %


     Nom de la base                          :  VOLATILE
     Nombre d'enregistrements utilisés       :  3
     Nombre d'enregistrements maximum        :  62914
     Longueur d'enregistrement (octets)      :  819200
     Nombre total d'accès en lecture         :  0
     Volume des accès en lecture             :          0.00 Mo.
     Nombre total d'accès en écriture        :  4
     Volume des accès en écriture            :          3.12 Mo.
     Nombre d'identificateurs utilisés       :  635
     Taille maximum du répertoire            :  2000
     Pourcentage d'utilisation du répertoire :  31 %

 <FIN> Arrêt normal dans "FIN".

 La mémoire demandée au lancement est surestimée, elle est de 862.00 Mo.
 Le pic mémoire utilisée est de 447.69 Mo.



     Nom de la base                          :  ELEMBASE
     Nombre d'enregistrements utilisés       :  30
     Nombre d'enregistrements maximum        :  512
     Longueur d'enregistrement (octets)      :  819200
     Nombre total d'accès en lecture         :  52
     Volume des accès en lecture             :         40.62 Mo.
     Nombre total d'accès en écriture        :  0
     Volume des accès en écriture            :          0.00 Mo.
     Nombre d'identificateurs utilisés       :  123
     Taille maximum du répertoire            :  300
     Pourcentage d'utilisation du répertoire :  41 %
  
 <I>       FERMETURE DES BASES EFFECTUEE
  
   STATISTIQUES CONCERNANT L'ALLOCATION DYNAMIQUE :
     TAILLE CUMULEE MAXIMUM            :                    59  Mo.
     TAILLE CUMULEE LIBEREE            :                    18  Mo.
     NOMBRE TOTAL D'ALLOCATIONS        :                  7713
     NOMBRE TOTAL DE LIBERATIONS       :                  7693
     APPELS AU MECANISME DE LIBERATION :                     0
     TAILLE MEMOIRE CUMULEE RECUPEREE  :                     0  Mo.
     VOLUME DES LECTURES               :                     0  Mo.
     VOLUME DES ECRITURES              :                     0  Mo.
  
   MEMOIRE JEVEUX MINIMALE REQUISE POUR L'EXECUTION :      33.47 Mo
     - IMPOSE DE NOMBREUX ACCES DISQUE
     - RALENTIT LA VITESSE D'EXECUTION
   MEMOIRE JEVEUX OPTIMALE REQUISE POUR L'EXECUTION :      58.58 Mo
     - LIMITE LES ACCES DISQUE
     - AMELIORE LA VITESSE D'EXECUTION
   MAXIMUM DE MEMOIRE UTILISEE PAR LE PROCESSUS     :     447.69 Mo
     - COMPREND LA MEMOIRE CONSOMMEE PAR  JEVEUX, 
       LE SUPERVISEUR PYTHON, LES LIBRAIRIES EXTERNES
  
 <I>       FIN D'EXECUTION LE : JE-13-OCTO-2016 00:11:15


  <I> Informations sur les temps d'exécution
      Temps cpu total                         1.09 s
      Temps cpu user total                    0.93 s
      Temps cpu systeme total                 0.16 s
      Temps cpu restant                     538.91 s


  La signature de la base sauvegardée est (à l'adresse 0) :
    edcd9c3d4e724854f2c9dddbe752da105fa7175f

 ********************************************************************************
 * COMMAND                  :       USER :     SYSTEM :   USER+SYS :    ELAPSED *
 ********************************************************************************
 * init (jdc)               :       0.30 :       0.05 :       0.35 :       0.67 *
 *  . compile               :       0.00 :       0.00 :       0.00 :       0.00 *
 *  . exec_compile          :       0.07 :       0.01 :       0.08 :       0.23 *
 *  . report                :       0.00 :       0.00 :       0.00 :       0.01 *
 *  . build                 :       0.00 :       0.00 :       0.00 :       0.00 *
 * DEBUT                    :       0.03 :       0.02 :       0.05 :       0.47 *
 * DEFI_MATERIAU            :       0.01 :       0.00 :       0.01 :       0.08 *
 * LIRE_MAILLAGE            :       0.05 :       0.00 :       0.05 :       0.17 *
 * MODI_MAILLAGE            :       0.02 :       0.01 :       0.03 :       0.11 *
 * AFFE_MODELE              :       0.03 :       0.01 :       0.04 :       0.31 *
 * AFFE_MATERIAU            :       0.01 :       0.00 :       0.01 :       0.02 *
 * AFFE_CHAR_MECA           :       0.02 :       0.00 :       0.02 :       0.06 *
 * MECA_STATIQUE            :       0.34 :       0.03 :       0.37 :       0.81 *
 * CALC_CHAMP               :       0.06 :       0.01 :       0.07 :       0.07 *
 * IMPR_RESU                :       0.02 :       0.00 :       0.02 :       0.06 *
 * FIN                      :       0.01 :       0.03 :       0.04 :       0.04 *
 *  . part Superviseur      :       0.38 :       0.07 :       0.45 :       1.28 *
 *  . part Fortran          :       0.55 :       0.09 :       0.64 :       1.67 *
 ********************************************************************************
 * TOTAL_JOB                :       0.93 :       0.16 :       1.09 :       2.96 *
 ********************************************************************************

EXECUTION_CODE_ASTER_EXIT_0001-11681-UBUNTU=0
